data_image0
_chemical_formula_structural       Pt24O32
_chemical_formula_sum              "Pt24 O32"
_cell_length_a       8.48794
_cell_length_b       8.48794
_cell_length_c       8.48794
_cell_angle_alpha    90
_cell_angle_beta     90
_cell_angle_gamma    90

_space_group_name_H-M_alt    "P 1"
_space_group_IT_number       1

loop_
  _space_group_symop_operation_xyz
  'x, y, z'

loop_
  _atom_site_type_symbol
  _atom_site_label
  _atom_site_symmetry_multiplicity
  _atom_site_fract_x
  _atom_site_fract_y
  _atom_site_fract_z
  _atom_site_occupancy
  Pt  Pt1       1.0  0.50000  0.50000  0.50000  1.0000
  Pt  Pt2       1.0  0.50000  0.00000  0.00000  1.0000
  Pt  Pt3       1.0  0.00000  0.00000  0.50000  1.0000
  Pt  Pt4       1.0  0.00000  0.50000  0.00000  1.0000
  Pt  Pt5       1.0  0.25000  0.75000  0.25000  1.0000
  Pt  Pt6       1.0  0.75000  0.75000  0.75000  1.0000
  Pt  Pt7       1.0  0.75000  0.25000  0.25000  1.0000
  Pt  Pt8       1.0  0.25000  0.25000  0.75000  1.0000
  Pt  Pt9       1.0  0.12500  0.12500  0.12500  1.0000
  Pt  Pt10      1.0  0.87500  0.37500  0.62500  1.0000
  Pt  Pt11      1.0  0.37500  0.62500  0.87500  1.0000
  Pt  Pt12      1.0  0.62500  0.87500  0.37500  1.0000
  Pt  Pt13      1.0  0.37500  0.87500  0.62500  1.0000
  Pt  Pt14      1.0  0.87500  0.62500  0.37500  1.0000
  Pt  Pt15      1.0  0.62500  0.37500  0.87500  1.0000
  Pt  Pt16      1.0  0.12500  0.62500  0.62500  1.0000
  Pt  Pt17      1.0  0.87500  0.87500  0.12500  1.0000
  Pt  Pt18      1.0  0.37500  0.12500  0.37500  1.0000
  Pt  Pt19      1.0  0.37500  0.37500  0.12500  1.0000
  Pt  Pt20      1.0  0.87500  0.12500  0.87500  1.0000
  Pt  Pt21      1.0  0.62500  0.12500  0.62500  1.0000
  Pt  Pt22      1.0  0.12500  0.87500  0.87500  1.0000
  Pt  Pt23      1.0  0.12500  0.37500  0.37500  1.0000
  Pt  Pt24      1.0  0.62500  0.62500  0.12500  1.0000
  O   O1        1.0  0.36260  0.36260  0.36260  1.0000
  O   O2        1.0  0.63740  0.13740  0.86260  1.0000
  O   O3        1.0  0.13740  0.86260  0.63740  1.0000
  O   O4        1.0  0.86260  0.63740  0.13740  1.0000
  O   O5        1.0  0.11260  0.61260  0.38740  1.0000
  O   O6        1.0  0.88740  0.88740  0.88740  1.0000
  O   O7        1.0  0.61260  0.38740  0.11260  1.0000
  O   O8        1.0  0.38740  0.11260  0.61260  1.0000
  O   O9        1.0  0.61260  0.11260  0.38740  1.0000
  O   O10       1.0  0.11260  0.38740  0.61260  1.0000
  O   O11       1.0  0.38740  0.61260  0.11260  1.0000
  O   O12       1.0  0.13740  0.63740  0.86260  1.0000
  O   O13       1.0  0.63740  0.86260  0.13740  1.0000
  O   O14       1.0  0.86260  0.13740  0.63740  1.0000
  O   O15       1.0  0.36260  0.86260  0.86260  1.0000
  O   O16       1.0  0.63740  0.63740  0.36260  1.0000
  O   O17       1.0  0.13740  0.36260  0.13740  1.0000
  O   O18       1.0  0.11260  0.11260  0.88740  1.0000
  O   O19       1.0  0.88740  0.38740  0.38740  1.0000
  O   O20       1.0  0.61260  0.88740  0.61260  1.0000
  O   O21       1.0  0.61260  0.61260  0.88740  1.0000
  O   O22       1.0  0.11260  0.88740  0.11260  1.0000
  O   O23       1.0  0.13740  0.13740  0.36260  1.0000
  O   O24       1.0  0.63740  0.36260  0.63740  1.0000
  O   O25       1.0  0.86260  0.36260  0.86260  1.0000
  O   O26       1.0  0.36260  0.63740  0.63740  1.0000
  O   O27       1.0  0.38740  0.88740  0.38740  1.0000
  O   O28       1.0  0.88740  0.11260  0.11260  1.0000
  O   O29       1.0  0.88740  0.61260  0.61260  1.0000
  O   O30       1.0  0.36260  0.13740  0.13740  1.0000
  O   O31       1.0  0.86260  0.86260  0.36260  1.0000
  O   O32       1.0  0.38740  0.38740  0.88740  1.0000
